LTspice 24.0.9 for Windows
Circuit: * C:\Users\gandh\OneDrive - IIIT Hyderabad\IIIT-H\Study Material\Sem-4\EW-2\Project-2\ECG\LtSpice\ECG.asc
Start Time: Mon May  5 11:12:24 2025
solver = Normal
Maximum thread count: 12
tnom = 27
temp = 27
method = modified trap
WARNING: Node NC_02 is floating.

WARNING: Less than two connections to node nc_01.  This node is used by b1.
WARNING: Less than two connections to node nc_02.  This node is used by b1.
Early termination of direct N-R iteration.
Direct Newton iteration failed to find .op point.  (Use ".option noopiter" to skip.)
Starting Gmin stepping
Gmin = 10
vernier = 0.5
vernier = 0.25
vernier = 0.125
Gmin = 5.5165
vernier = 0.0625
vernier = 0.03125
vernier = 0.015625
vernier = 0.0078125
Gmin = 5.49501
vernier = 0.00390625
vernier = 0.00195312
vernier = 0.000976562
vernier = 0.000488281
Gmin = 5.50104
Gmin = 0
Gmin stepping failed

Starting source stepping with srcstepmethod=0
Source Step = 3.0303%
Source Step = 33.3333%
Source Step = 63.6364%
Source Step = 93.9394%
Source stepping succeeded in finding the operating point.

Total elapsed time: 0.790 seconds.

